[Format]      =  4.0
[Frequency]   =  0
[Precision]   =  1e-008
[MinAngle]    =  30
[Depth]       =  1
[LengthUnits] =  millimeters
[ProblemType] =  axisymmetric
[Coordinates] =  cartesian
[ACSolver]    =  0
[PrevSoln]    =  ""
[Comment]     =  "Add comments here."
[PointProps]   = 0
[BdryProps]   = 0
[BlockProps]  = 3
  <BeginBlock>
    <BlockName> = "Air"
    <Mu_x> = 1
    <Mu_y> = 1
    <H_c> = 0
    <H_cAngle> = 0
    <J_re> = 0
    <J_im> = 0
    <Sigma> = 0
    <d_lam> = 0
    <Phi_h> = 0
    <Phi_hx> = 0
    <Phi_hy> = 0
    <LamType> = 0
    <LamFill> = 1
    <NStrands> = 0
    <WireD> = 0
    <BHPoints> = 0
  <EndBlock>
  <BeginBlock>
    <BlockName> = "20 AWG"
    <Mu_x> = 1
    <Mu_y> = 1
    <H_c> = 0
    <H_cAngle> = 0
    <J_re> = 0
    <J_im> = 0
    <Sigma> = 58
    <d_lam> = 0
    <Phi_h> = 0
    <Phi_hx> = 0
    <Phi_hy> = 0
    <LamType> = 3
    <LamFill> = 1
    <NStrands> = 1
    <WireD> = 0.812049969500513
    <BHPoints> = 0
  <EndBlock>
  <BeginBlock>
    <BlockName> = "ferrite"
    <Mu_x> = 2000
    <Mu_y> = 2000
    <H_c> = 0
    <H_cAngle> = 0
    <J_re> = 0
    <J_im> = 0
    <Sigma> = 0
    <d_lam> = 0
    <Phi_h> = 0
    <Phi_hx> = 0
    <Phi_hy> = 0
    <LamType> = 0
    <LamFill> = 1
    <NStrands> = 0
    <WireD> = 0
    <BHPoints> = 33
      0	0
      0.026505999999999998	4.7871100000000002
      0.084336999999999995	13.384606
      0.19156599999999999	27.687449000000001
      0.25542199999999998	34.814013000000003
      0.30602400000000002	41.972745000000003
      0.33975899999999998	46.259796000000001
      0.362651	52.029477
      0.38192799999999999	59.264240999999998
      0.40000000000000002	66.501930000000002
      0.41445799999999999	76.661012999999997
      0.43012	91.186104
      0.44457799999999997	112.995672
      0.45783099999999999	137.720786
      0.46505999999999997	162.460522
      0.47349400000000003	197.39150799999999
      0.48072300000000001	232.32541800000001
      0.487952	278.90981399999998
      0.49518099999999998	329.86314199999998
      0.50120500000000001	385.18832600000002
      0.50722900000000004	465.27079199999997
      0.51084300000000005	513.32027100000005
      0.51445799999999997	565.73868300000004
      0.51686699999999997	612.33477600000003
      0.51927699999999999	653.10562600000003
      0.520482	696.79202299999997
      0.52409600000000001	744.84150199999999
      0.52530100000000002	797.265762
      0.52771100000000004	858.42496200000005
      0.52891600000000005	905.02397900000005
      0.53012000000000004	973.46765700000003
      0.53132500000000005	1047.7365769999999
      0.53373499999999996	1092.87636
  <EndBlock>
[CircuitProps]  = 1
  <BeginCircuit>
    <CircuitName> = "c1"
    <TotalAmps_re> = 2
    <TotalAmps_im> = 0
    <CircuitType> = 1
  <EndCircuit>
[NumPoints] = 25
0	40	0	0
0	-60	0	0
0	22	0	0
33	22	0	0
0	2	0	0
33	2	0	0
0	1.9984014443252818e-015	0	1
35	1.9984014443252818e-015	0	1
0	-9.9999999999999254	0	1
35	-9.9999999999999254	0	1
18	2	0	0
18	12	0	0
20	14	0	0
26	14	0	0
28	12	0	0
28	2	0	0
60	-60	0	0
60	40	0	0
22	1.9984014443252818e-015	0	1
24	1.9984014443252818e-015	0	1
18	1.9984014443252818e-015	0	1
28	1.9984014443252818e-015	0	1
33	1.9984014443252818e-015	0	1
18	4	0	0
28	4	0	0
[NumSegments] = 26
0	2	-1	0	0	0
2	4	-1	0	0	0
2	3	-1	0	0	0
4	6	-1	0	0	0
4	10	-1	0	0	0
3	5	-1	0	0	0
6	8	-1	0	0	1
8	1	-1	0	0	0
8	9	-1	0	0	1
7	9	-1	0	0	1
10	23	-1	0	0	0
12	13	-1	0	0	0
15	5	-1	0	0	0
14	24	-1	0	0	0
1	16	-1	0	0	0
16	17	-1	0	0	0
17	0	-1	0	0	0
19	18	-1	0	0	1
18	20	-1	0	0	1
20	6	-1	0	0	1
7	22	-1	0	0	1
21	19	-1	0	0	1
22	21	-1	0	0	1
23	11	-1	0	0	0
24	15	-1	0	0	0
24	23	-1	0	0	0
[NumArcSegments] = 2
14	13	90	5	0	0	0
12	11	90	5	0	0	0
[NumHoles] = 0
[NumBlockLabels] = 4
11.1	16.699999999999999	3	-1	0	0	0	1	0
16.5	-5.5000000000000329	3	-1	0	0	1	1	0
41.399999999999999	19.600000000000001	1	-1	0	0	0	1	0
22.300000000000001	6.3999999999999986	2	-1	1	0	0	162	0
