[Format]      =  4.0
[Frequency]   =  0
[Precision]   =  1e-008
[MinAngle]    =  30
[Depth]       =  24
[LengthUnits] =  millimeters
[ProblemType] =  planar
[Coordinates] =  cartesian
[ACSolver]    =  0
[PrevSoln]    =  ""
[Comment]     =  "Add comments here."
[PointProps]   = 0
[BdryProps]   = 0
[BlockProps]  = 6
  <BeginBlock>
    <BlockName> = "ferrite"
    <Mu_x> = 2000
    <Mu_y> = 2000
    <H_c> = 0
    <H_cAngle> = 0
    <J_re> = 0
    <J_im> = 0
    <Sigma> = 0
    <d_lam> = 0
    <Phi_h> = 0
    <Phi_hx> = 0
    <Phi_hy> = 0
    <LamType> = 0
    <LamFill> = 1
    <NStrands> = 0
    <WireD> = 0
    <BHPoints> = 33
      0	0
      0.026505999999999998	4.7871100000000002
      0.084336999999999995	13.384606
      0.19156599999999999	27.687449000000001
      0.25542199999999998	34.814013000000003
      0.30602400000000002	41.972745000000003
      0.33975899999999998	46.259796000000001
      0.362651	52.029477
      0.38192799999999999	59.264240999999998
      0.40000000000000002	66.501930000000002
      0.41445799999999999	76.661012999999997
      0.43012	91.186104
      0.44457799999999997	112.995672
      0.45783099999999999	137.720786
      0.46505999999999997	162.460522
      0.47349400000000003	197.39150799999999
      0.48072300000000001	232.32541800000001
      0.487952	278.90981399999998
      0.49518099999999998	329.86314199999998
      0.50120500000000001	385.18832600000002
      0.50722900000000004	465.27079199999997
      0.51084300000000005	513.32027100000005
      0.51445799999999997	565.73868300000004
      0.51686699999999997	612.33477600000003
      0.51927699999999999	653.10562600000003
      0.520482	696.79202299999997
      0.52409600000000001	744.84150199999999
      0.52530100000000002	797.265762
      0.52771100000000004	858.42496200000005
      0.52891600000000005	905.02397900000005
      0.53012000000000004	973.46765700000003
      0.53132500000000005	1047.7365769999999
      0.53373499999999996	1092.87636
  <EndBlock>
  <BeginBlock>
    <BlockName> = "Air"
    <Mu_x> = 1
    <Mu_y> = 1
    <H_c> = 0
    <H_cAngle> = 0
    <J_re> = 0
    <J_im> = 0
    <Sigma> = 0
    <d_lam> = 0
    <Phi_h> = 0
    <Phi_hx> = 0
    <Phi_hy> = 0
    <LamType> = 0
    <LamFill> = 1
    <NStrands> = 0
    <WireD> = 0
    <BHPoints> = 0
  <EndBlock>
  <BeginBlock>
    <BlockName> = "20 AWG"
    <Mu_x> = 1
    <Mu_y> = 1
    <H_c> = 0
    <H_cAngle> = 0
    <J_re> = 0
    <J_im> = 0
    <Sigma> = 58
    <d_lam> = 0
    <Phi_h> = 0
    <Phi_hx> = 0
    <Phi_hy> = 0
    <LamType> = 3
    <LamFill> = 1
    <NStrands> = 1
    <WireD> = 0.812049969500513
    <BHPoints> = 0
  <EndBlock>
  <BeginBlock>
    <BlockName> = "somaloy"
    <Mu_x> = 1
    <Mu_y> = 1
    <H_c> = 0
    <H_cAngle> = 0
    <J_re> = 0
    <J_im> = 0
    <Sigma> = 0
    <d_lam> = 0
    <Phi_h> = 0
    <Phi_hx> = 0
    <Phi_hy> = 0
    <LamType> = 0
    <LamFill> = 1
    <NStrands> = 0
    <WireD> = 0
    <BHPoints> = 22
      0	0
      0.02	55
      0.040000000000000001	83
      0.10000000000000001	141
      0.17000000000000001	193
      0.46999999999999997	405
      0.63	565
      0.83999999999999997	862
      1.04	1355
      1.24	2352
      1.4399999999999999	4905
      1.6299999999999999	11258
      1.8400000000000001	25221
      2	49535
      2.0800000000000001	74535
      2.1400000000000001	99535
      2.1800000000000002	124535
      2.23	149535
      2.29	189535
      2.3500000000000001	229535
      2.4300000000000002	279535
      2.46	304535
  <EndBlock>
  <BeginBlock>
    <BlockName> = "pro"
    <Mu_x> = 900
    <Mu_y> = 900
    <H_c> = 0
    <H_cAngle> = 0
    <J_re> = 0
    <J_im> = 0
    <Sigma> = 0
    <d_lam> = 0
    <Phi_h> = 0
    <Phi_hx> = 0
    <Phi_hy> = 0
    <LamType> = 0
    <LamFill> = 1
    <NStrands> = 0
    <WireD> = 0
    <BHPoints> = 0
  <EndBlock>
  <BeginBlock>
    <BlockName> = "18 AWG"
    <Mu_x> = 1
    <Mu_y> = 1
    <H_c> = 0
    <H_cAngle> = 0
    <J_re> = 0
    <J_im> = 0
    <Sigma> = 58
    <d_lam> = 0
    <Phi_h> = 0
    <Phi_hx> = 0
    <Phi_hy> = 0
    <LamType> = 3
    <LamFill> = 1
    <NStrands> = 1
    <WireD> = 1.0239652968433499
    <BHPoints> = 0
  <EndBlock>
[CircuitProps]  = 1
  <BeginCircuit>
    <CircuitName> = "c1"
    <TotalAmps_re> = 2
    <TotalAmps_im> = 0
    <CircuitType> = 1
  <EndCircuit>
[NumPoints] = 28
0	0.25	0	0
0	-0.25	0	0
10.5967059444	45.276482009200002	0	0
16.293859677899999	69.618676637799993	0	0
-16.293859677899999	69.618676637799993	0	0
-10.5967059444	45.276482009200002	0	0
-21.830427669500001	41.057063067900003	0	0
-39.200875492599998	73.726124003699994	0	0
39.200875492599998	73.726124003699994	0	0
21.830427669500001	41.057063067900003	0	0
-9	52.931304795599999	0	0
-9	70.931304795599999	0	0
9	70.931304795599999	0	0
9	52.931304795599999	0	0
-9	83.5	0	0
-9	101.5	0	0
9	101.5	0	0
9	83.5	0	0
141.48690476659999	131.53548118340001	0	0
-141.48690476659999	131.53548118340001	0	0
141.48690476659999	-131.53548118340001	0	0
-141.48690476659999	-131.53548118340001	0	0
45.999999999999993	-0.25	0	0
-45.999999999999993	-0.25	0	0
34	-0.25	0	0
-34	-0.25	0	0
-9	83.013553110294353	0	0
9	83.013553110294353	0	0
[NumSegments] = 17
0	1	-1	0	0	0
2	3	-1	0	0	0
4	5	-1	0	0	0
6	7	-1	0	0	0
8	9	-1	0	0	0
10	11	-1	0	0	0
12	13	-1	0	0	0
13	10	-1	0	0	0
14	15	-1	0	0	0
15	16	-1	0	0	0
16	17	-1	0	0	0
18	19	-1	0	0	0
18	20	-1	0	0	0
20	21	-1	0	0	0
19	21	-1	0	0	0
14	26	-1	0	0	0
17	27	-1	0	0	0
[NumArcSegments] = 12
22	23	180	5	0	0	0
23	22	180	5	0	0	0
24	25	180	5	0	0	0
25	24	180	5	0	0	0
3	12	5.9414141587175235	5	0	0	0
12	11	14.46247647636393	5	0	0	0
11	4	5.9414141587185521	5	0	0	0
9	2	14.827347603099994	5	0	0	0
5	6	14.827347603099994	5	0	0	0
8	27	21.812386575696227	5	0	0	0
27	26	12.375226848607552	5	0	0	0
26	7	21.812386575696223	5	0	0	0
[NumHoles] = 0
[NumBlockLabels] = 6
-0.29999999999999999	40.200000000000003	4	-1	0	0	0	1	0
2.6000000000000001	15.800000000000001	2	-1	0	0	0	1	0
5.2000000000000002	61.600000000000001	6	-1	1	0	0	314	0
2	87	6	-1	1	0	0	-314	0
-20.800000000000001	56.399999999999999	4	-1	0	0	0	1	0
41.100000000000001	75.099999999999994	2	-1	0	0	0	1	0
